/*--------------------------------*- C++ -*----------------------------------*\
  =========                 |
  \\      /  F ield         | OpenFOAM: The Open Source CFD Toolbox
   \\    /   O peration     | Website:  https://openfoam.org
    \\  /    A nd           | Version:  7
     \\/     M anipulation  |
\*---------------------------------------------------------------------------*/
FoamFile
{
    version     2.0;
    format      ascii;
    class       polyBoundaryMesh;
    location    "constant/polyMesh";
    object      boundary;
}
// * * * * * * * * * * * * * * * * * * * * * * * * * * * * * * * * * * * * * //

10
(
    inlet
    {
        type            patch;
        nFaces          7;
        startFace       205;
    }
    outlet
    {
        type            patch;
        nFaces          0;
        startFace       212;
    }
    polygon
    {
        type            wall;
        inGroups        List<word> 1(wall);
        nFaces          0;
        startFace       212;
    }
    top
    {
        type            symmetryPlane;
        inGroups        List<word> 1(symmetryPlane);
        nFaces          115;
        startFace       212;
    }
    bottom
    {
        type            symmetryPlane;
        inGroups        List<word> 1(symmetryPlane);
        nFaces          115;
        startFace       327;
    }
    outside
    {
        type            patch;
        nFaces          0;
        startFace       442;
    }
    procBoundary16to8
    {
        type            processor;
        inGroups        List<word> 1(processor);
        nFaces          17;
        startFace       442;
        matchTolerance  0.0001;
        transform       unknown;
        myProcNo        16;
        neighbProcNo    8;
    }
    procBoundary16to17
    {
        type            processor;
        inGroups        List<word> 1(processor);
        nFaces          2;
        startFace       459;
        matchTolerance  0.0001;
        transform       unknown;
        myProcNo        16;
        neighbProcNo    17;
    }
    procBoundary16to24
    {
        type            processor;
        inGroups        List<word> 1(processor);
        nFaces          18;
        startFace       461;
        matchTolerance  0.0001;
        transform       unknown;
        myProcNo        16;
        neighbProcNo    24;
    }
    procBoundary16to25
    {
        type            processor;
        inGroups        List<word> 1(processor);
        nFaces          6;
        startFace       479;
        matchTolerance  0.0001;
        transform       unknown;
        myProcNo        16;
        neighbProcNo    25;
    }
)

// ************************************************************************* //
