/*--------------------------------*- C++ -*----------------------------------*\
  =========                 |
  \\      /  F ield         | OpenFOAM: The Open Source CFD Toolbox
   \\    /   O peration     | Website:  https://openfoam.org
    \\  /    A nd           | Version:  7
     \\/     M anipulation  |
\*---------------------------------------------------------------------------*/
FoamFile
{
    version     2.0;
    format      ascii;
    class       polyBoundaryMesh;
    location    "constant/polyMesh";
    object      boundary;
}
// * * * * * * * * * * * * * * * * * * * * * * * * * * * * * * * * * * * * * //

9
(
    inlet
    {
        type            patch;
        nFaces          0;
        startFace       203;
    }
    outlet
    {
        type            patch;
        nFaces          0;
        startFace       203;
    }
    polygon
    {
        type            wall;
        inGroups        List<word> 1(wall);
        nFaces          0;
        startFace       203;
    }
    top
    {
        type            symmetryPlane;
        inGroups        List<word> 1(symmetryPlane);
        nFaces          115;
        startFace       203;
    }
    bottom
    {
        type            symmetryPlane;
        inGroups        List<word> 1(symmetryPlane);
        nFaces          115;
        startFace       318;
    }
    outside
    {
        type            patch;
        nFaces          21;
        startFace       433;
    }
    procBoundary57to49
    {
        type            processor;
        inGroups        List<word> 1(processor);
        nFaces          23;
        startFace       454;
        matchTolerance  0.0001;
        transform       unknown;
        myProcNo        57;
        neighbProcNo    49;
    }
    procBoundary57to56
    {
        type            processor;
        inGroups        List<word> 1(processor);
        nFaces          5;
        startFace       477;
        matchTolerance  0.0001;
        transform       unknown;
        myProcNo        57;
        neighbProcNo    56;
    }
    procBoundary57to58
    {
        type            processor;
        inGroups        List<word> 1(processor);
        nFaces          5;
        startFace       482;
        matchTolerance  0.0001;
        transform       unknown;
        myProcNo        57;
        neighbProcNo    58;
    }
)

// ************************************************************************* //
