/*--------------------------------*- C++ -*----------------------------------*\
  =========                 |
  \\      /  F ield         | OpenFOAM: The Open Source CFD Toolbox
   \\    /   O peration     | Website:  https://openfoam.org
    \\  /    A nd           | Version:  7
     \\/     M anipulation  |
\*---------------------------------------------------------------------------*/
FoamFile
{
    version     2.0;
    format      ascii;
    class       polyBoundaryMesh;
    location    "constant/polyMesh";
    object      boundary;
}
// * * * * * * * * * * * * * * * * * * * * * * * * * * * * * * * * * * * * * //

11
(
    inlet
    {
        type            patch;
        nFaces          0;
        startFace       206;
    }
    outlet
    {
        type            patch;
        nFaces          0;
        startFace       206;
    }
    polygon
    {
        type            wall;
        inGroups        List<word> 1(wall);
        nFaces          0;
        startFace       206;
    }
    top
    {
        type            symmetryPlane;
        inGroups        List<word> 1(symmetryPlane);
        nFaces          115;
        startFace       206;
    }
    bottom
    {
        type            symmetryPlane;
        inGroups        List<word> 1(symmetryPlane);
        nFaces          115;
        startFace       321;
    }
    outside
    {
        type            patch;
        nFaces          0;
        startFace       436;
    }
    procBoundary11to3
    {
        type            processor;
        inGroups        List<word> 1(processor);
        nFaces          17;
        startFace       436;
        matchTolerance  0.0001;
        transform       unknown;
        myProcNo        11;
        neighbProcNo    3;
    }
    procBoundary11to10
    {
        type            processor;
        inGroups        List<word> 1(processor);
        nFaces          5;
        startFace       453;
        matchTolerance  0.0001;
        transform       unknown;
        myProcNo        11;
        neighbProcNo    10;
    }
    procBoundary11to12
    {
        type            processor;
        inGroups        List<word> 1(processor);
        nFaces          7;
        startFace       458;
        matchTolerance  0.0001;
        transform       unknown;
        myProcNo        11;
        neighbProcNo    12;
    }
    procBoundary11to18
    {
        type            processor;
        inGroups        List<word> 1(processor);
        nFaces          2;
        startFace       465;
        matchTolerance  0.0001;
        transform       unknown;
        myProcNo        11;
        neighbProcNo    18;
    }
    procBoundary11to19
    {
        type            processor;
        inGroups        List<word> 1(processor);
        nFaces          17;
        startFace       467;
        matchTolerance  0.0001;
        transform       unknown;
        myProcNo        11;
        neighbProcNo    19;
    }
)

// ************************************************************************* //
