/*--------------------------------*- C++ -*----------------------------------*\
  =========                 |
  \\      /  F ield         | OpenFOAM: The Open Source CFD Toolbox
   \\    /   O peration     | Website:  https://openfoam.org
    \\  /    A nd           | Version:  7
     \\/     M anipulation  |
\*---------------------------------------------------------------------------*/
FoamFile
{
    version     2.0;
    format      ascii;
    class       polyBoundaryMesh;
    location    "constant/polyMesh";
    object      boundary;
}
// * * * * * * * * * * * * * * * * * * * * * * * * * * * * * * * * * * * * * //

11
(
    inlet
    {
        type            patch;
        nFaces          0;
        startFace       322;
    }
    outlet
    {
        type            patch;
        nFaces          0;
        startFace       322;
    }
    polygon
    {
        type            wall;
        inGroups        List<word> 1(wall);
        nFaces          0;
        startFace       322;
    }
    top
    {
        type            symmetryPlane;
        inGroups        List<word> 1(symmetryPlane);
        nFaces          175;
        startFace       322;
    }
    bottom
    {
        type            symmetryPlane;
        inGroups        List<word> 1(symmetryPlane);
        nFaces          175;
        startFace       497;
    }
    outside
    {
        type            patch;
        nFaces          0;
        startFace       672;
    }
    procBoundary37to29
    {
        type            processor;
        inGroups        List<word> 1(processor);
        nFaces          18;
        startFace       672;
        matchTolerance  0.0001;
        transform       unknown;
        myProcNo        37;
        neighbProcNo    29;
    }
    procBoundary37to30
    {
        type            processor;
        inGroups        List<word> 1(processor);
        nFaces          1;
        startFace       690;
        matchTolerance  0.0001;
        transform       unknown;
        myProcNo        37;
        neighbProcNo    30;
    }
    procBoundary37to36
    {
        type            processor;
        inGroups        List<word> 1(processor);
        nFaces          10;
        startFace       691;
        matchTolerance  0.0001;
        transform       unknown;
        myProcNo        37;
        neighbProcNo    36;
    }
    procBoundary37to38
    {
        type            processor;
        inGroups        List<word> 1(processor);
        nFaces          8;
        startFace       701;
        matchTolerance  0.0001;
        transform       unknown;
        myProcNo        37;
        neighbProcNo    38;
    }
    procBoundary37to45
    {
        type            processor;
        inGroups        List<word> 1(processor);
        nFaces          19;
        startFace       709;
        matchTolerance  0.0001;
        transform       unknown;
        myProcNo        37;
        neighbProcNo    45;
    }
)

// ************************************************************************* //
