/*--------------------------------*- C++ -*----------------------------------*\
  =========                 |
  \\      /  F ield         | OpenFOAM: The Open Source CFD Toolbox
   \\    /   O peration     | Website:  https://openfoam.org
    \\  /    A nd           | Version:  7
     \\/     M anipulation  |
\*---------------------------------------------------------------------------*/
FoamFile
{
    version     2.0;
    format      ascii;
    class       polyBoundaryMesh;
    location    "constant/polyMesh";
    object      boundary;
}
// * * * * * * * * * * * * * * * * * * * * * * * * * * * * * * * * * * * * * //

9
(
    inlet
    {
        type            patch;
        nFaces          0;
        startFace       206;
    }
    outlet
    {
        type            patch;
        nFaces          0;
        startFace       206;
    }
    polygon
    {
        type            wall;
        inGroups        List<word> 1(wall);
        nFaces          0;
        startFace       206;
    }
    top
    {
        type            symmetryPlane;
        inGroups        List<word> 1(symmetryPlane);
        nFaces          115;
        startFace       206;
    }
    bottom
    {
        type            symmetryPlane;
        inGroups        List<word> 1(symmetryPlane);
        nFaces          115;
        startFace       321;
    }
    outside
    {
        type            patch;
        nFaces          17;
        startFace       436;
    }
    procBoundary61to53
    {
        type            processor;
        inGroups        List<word> 1(processor);
        nFaces          18;
        startFace       453;
        matchTolerance  0.0001;
        transform       unknown;
        myProcNo        61;
        neighbProcNo    53;
    }
    procBoundary61to60
    {
        type            processor;
        inGroups        List<word> 1(processor);
        nFaces          6;
        startFace       471;
        matchTolerance  0.0001;
        transform       unknown;
        myProcNo        61;
        neighbProcNo    60;
    }
    procBoundary61to62
    {
        type            processor;
        inGroups        List<word> 1(processor);
        nFaces          7;
        startFace       477;
        matchTolerance  0.0001;
        transform       unknown;
        myProcNo        61;
        neighbProcNo    62;
    }
)

// ************************************************************************* //
