/*--------------------------------*- C++ -*----------------------------------*\
  =========                 |
  \\      /  F ield         | OpenFOAM: The Open Source CFD Toolbox
   \\    /   O peration     | Website:  https://openfoam.org
    \\  /    A nd           | Version:  7
     \\/     M anipulation  |
\*---------------------------------------------------------------------------*/
FoamFile
{
    version     2.0;
    format      ascii;
    class       polyBoundaryMesh;
    location    "constant/polyMesh";
    object      boundary;
}
// * * * * * * * * * * * * * * * * * * * * * * * * * * * * * * * * * * * * * //

9
(
    inlet
    {
        type            patch;
        nFaces          0;
        startFace       224;
    }
    outlet
    {
        type            patch;
        nFaces          8;
        startFace       224;
    }
    polygon
    {
        type            wall;
        inGroups        List<word> 1(wall);
        nFaces          0;
        startFace       232;
    }
    top
    {
        type            symmetryPlane;
        inGroups        List<word> 1(symmetryPlane);
        nFaces          125;
        startFace       232;
    }
    bottom
    {
        type            symmetryPlane;
        inGroups        List<word> 1(symmetryPlane);
        nFaces          125;
        startFace       357;
    }
    outside
    {
        type            patch;
        nFaces          0;
        startFace       482;
    }
    procBoundary23to15
    {
        type            processor;
        inGroups        List<word> 1(processor);
        nFaces          18;
        startFace       482;
        matchTolerance  0.0001;
        transform       unknown;
        myProcNo        23;
        neighbProcNo    15;
    }
    procBoundary23to22
    {
        type            processor;
        inGroups        List<word> 1(processor);
        nFaces          8;
        startFace       500;
        matchTolerance  0.0001;
        transform       unknown;
        myProcNo        23;
        neighbProcNo    22;
    }
    procBoundary23to31
    {
        type            processor;
        inGroups        List<word> 1(processor);
        nFaces          18;
        startFace       508;
        matchTolerance  0.0001;
        transform       unknown;
        myProcNo        23;
        neighbProcNo    31;
    }
)

// ************************************************************************* //
