/*--------------------------------*- C++ -*----------------------------------*\
  =========                 |
  \\      /  F ield         | OpenFOAM: The Open Source CFD Toolbox
   \\    /   O peration     | Website:  https://openfoam.org
    \\  /    A nd           | Version:  7
     \\/     M anipulation  |
\*---------------------------------------------------------------------------*/
FoamFile
{
    version     2.0;
    format      ascii;
    class       polyBoundaryMesh;
    location    "constant/polyMesh";
    object      boundary;
}
// * * * * * * * * * * * * * * * * * * * * * * * * * * * * * * * * * * * * * //

11
(
    inlet
    {
        type            patch;
        nFaces          0;
        startFace       364;
    }
    outlet
    {
        type            patch;
        nFaces          0;
        startFace       364;
    }
    polygon
    {
        type            wall;
        inGroups        List<word> 1(wall);
        nFaces          80;
        startFace       364;
    }
    top
    {
        type            symmetryPlane;
        inGroups        List<word> 1(symmetryPlane);
        nFaces          225;
        startFace       444;
    }
    bottom
    {
        type            symmetryPlane;
        inGroups        List<word> 1(symmetryPlane);
        nFaces          225;
        startFace       669;
    }
    outside
    {
        type            patch;
        nFaces          0;
        startFace       894;
    }
    procBoundary6to2
    {
        type            processor;
        inGroups        List<word> 1(processor);
        nFaces          42;
        startFace       894;
        matchTolerance  0.0001;
        transform       unknown;
        myProcNo        6;
        neighbProcNo    2;
    }
    procBoundary6to3
    {
        type            processor;
        inGroups        List<word> 1(processor);
        nFaces          21;
        startFace       936;
        matchTolerance  0.0001;
        transform       unknown;
        myProcNo        6;
        neighbProcNo    3;
    }
    procBoundary6to5
    {
        type            processor;
        inGroups        List<word> 1(processor);
        nFaces          4;
        startFace       957;
        matchTolerance  0.0001;
        transform       unknown;
        myProcNo        6;
        neighbProcNo    5;
    }
    procBoundary6to7
    {
        type            processor;
        inGroups        List<word> 1(processor);
        nFaces          24;
        startFace       961;
        matchTolerance  0.0001;
        transform       unknown;
        myProcNo        6;
        neighbProcNo    7;
    }
    procBoundary6to10
    {
        type            processor;
        inGroups        List<word> 1(processor);
        nFaces          1;
        startFace       985;
        matchTolerance  0.0001;
        transform       unknown;
        myProcNo        6;
        neighbProcNo    10;
    }
)

// ************************************************************************* //
