/*--------------------------------*- C++ -*----------------------------------*\
  =========                 |
  \\      /  F ield         | OpenFOAM: The Open Source CFD Toolbox
   \\    /   O peration     | Website:  https://openfoam.org
    \\  /    A nd           | Version:  7
     \\/     M anipulation  |
\*---------------------------------------------------------------------------*/
FoamFile
{
    version     2.0;
    format      ascii;
    class       polyBoundaryMesh;
    location    "constant/polyMesh";
    object      boundary;
}
// * * * * * * * * * * * * * * * * * * * * * * * * * * * * * * * * * * * * * //

9
(
    inlet
    {
        type            patch;
        nFaces          6;
        startFace       206;
    }
    outlet
    {
        type            patch;
        nFaces          0;
        startFace       212;
    }
    polygon
    {
        type            wall;
        inGroups        List<word> 1(wall);
        nFaces          0;
        startFace       212;
    }
    top
    {
        type            symmetryPlane;
        inGroups        List<word> 1(symmetryPlane);
        nFaces          115;
        startFace       212;
    }
    bottom
    {
        type            symmetryPlane;
        inGroups        List<word> 1(symmetryPlane);
        nFaces          115;
        startFace       327;
    }
    outside
    {
        type            patch;
        nFaces          17;
        startFace       442;
    }
    procBoundary56to48
    {
        type            processor;
        inGroups        List<word> 1(processor);
        nFaces          18;
        startFace       459;
        matchTolerance  0.0001;
        transform       unknown;
        myProcNo        56;
        neighbProcNo    48;
    }
    procBoundary56to49
    {
        type            processor;
        inGroups        List<word> 1(processor);
        nFaces          2;
        startFace       477;
        matchTolerance  0.0001;
        transform       unknown;
        myProcNo        56;
        neighbProcNo    49;
    }
    procBoundary56to57
    {
        type            processor;
        inGroups        List<word> 1(processor);
        nFaces          5;
        startFace       479;
        matchTolerance  0.0001;
        transform       unknown;
        myProcNo        56;
        neighbProcNo    57;
    }
)

// ************************************************************************* //
