/*--------------------------------*- C++ -*----------------------------------*\
  =========                 |
  \\      /  F ield         | OpenFOAM: The Open Source CFD Toolbox
   \\    /   O peration     | Website:  https://openfoam.org
    \\  /    A nd           | Version:  7
     \\/     M anipulation  |
\*---------------------------------------------------------------------------*/
FoamFile
{
    version     2.0;
    format      ascii;
    class       polyBoundaryMesh;
    location    "constant/polyMesh";
    object      boundary;
}
// * * * * * * * * * * * * * * * * * * * * * * * * * * * * * * * * * * * * * //

12
(
    inlet
    {
        type            patch;
        nFaces          0;
        startFace       224;
    }
    outlet
    {
        type            patch;
        nFaces          0;
        startFace       224;
    }
    polygon
    {
        type            wall;
        inGroups        List<word> 1(wall);
        nFaces          2;
        startFace       224;
    }
    top
    {
        type            symmetryPlane;
        inGroups        List<word> 1(symmetryPlane);
        nFaces          125;
        startFace       226;
    }
    bottom
    {
        type            symmetryPlane;
        inGroups        List<word> 1(symmetryPlane);
        nFaces          125;
        startFace       351;
    }
    outside
    {
        type            patch;
        nFaces          0;
        startFace       476;
    }
    procBoundary42to33
    {
        type            processor;
        inGroups        List<word> 1(processor);
        nFaces          4;
        startFace       476;
        matchTolerance  0.0001;
        transform       unknown;
        myProcNo        42;
        neighbProcNo    33;
    }
    procBoundary42to34
    {
        type            processor;
        inGroups        List<word> 1(processor);
        nFaces          17;
        startFace       480;
        matchTolerance  0.0001;
        transform       unknown;
        myProcNo        42;
        neighbProcNo    34;
    }
    procBoundary42to35
    {
        type            processor;
        inGroups        List<word> 1(processor);
        nFaces          1;
        startFace       497;
        matchTolerance  0.0001;
        transform       unknown;
        myProcNo        42;
        neighbProcNo    35;
    }
    procBoundary42to41
    {
        type            processor;
        inGroups        List<word> 1(processor);
        nFaces          2;
        startFace       498;
        matchTolerance  0.0001;
        transform       unknown;
        myProcNo        42;
        neighbProcNo    41;
    }
    procBoundary42to43
    {
        type            processor;
        inGroups        List<word> 1(processor);
        nFaces          8;
        startFace       500;
        matchTolerance  0.0001;
        transform       unknown;
        myProcNo        42;
        neighbProcNo    43;
    }
    procBoundary42to50
    {
        type            processor;
        inGroups        List<word> 1(processor);
        nFaces          18;
        startFace       508;
        matchTolerance  0.0001;
        transform       unknown;
        myProcNo        42;
        neighbProcNo    50;
    }
)

// ************************************************************************* //
