/*--------------------------------*- C++ -*----------------------------------*\
  =========                 |
  \\      /  F ield         | OpenFOAM: The Open Source CFD Toolbox
   \\    /   O peration     | Website:  https://openfoam.org
    \\  /    A nd           | Version:  7
     \\/     M anipulation  |
\*---------------------------------------------------------------------------*/
FoamFile
{
    version     2.0;
    format      ascii;
    class       polyBoundaryMesh;
    location    "constant/polyMesh";
    object      boundary;
}
// * * * * * * * * * * * * * * * * * * * * * * * * * * * * * * * * * * * * * //

11
(
    inlet
    {
        type            patch;
        nFaces          0;
        startFace       212;
    }
    outlet
    {
        type            patch;
        nFaces          0;
        startFace       212;
    }
    polygon
    {
        type            wall;
        inGroups        List<word> 1(wall);
        nFaces          26;
        startFace       212;
    }
    top
    {
        type            symmetryPlane;
        inGroups        List<word> 1(symmetryPlane);
        nFaces          125;
        startFace       238;
    }
    bottom
    {
        type            symmetryPlane;
        inGroups        List<word> 1(symmetryPlane);
        nFaces          125;
        startFace       363;
    }
    outside
    {
        type            patch;
        nFaces          0;
        startFace       488;
    }
    procBoundary25to16
    {
        type            processor;
        inGroups        List<word> 1(processor);
        nFaces          9;
        startFace       488;
        matchTolerance  0.0001;
        transform       unknown;
        myProcNo        25;
        neighbProcNo    16;
    }
    procBoundary25to17
    {
        type            processor;
        inGroups        List<word> 1(processor);
        nFaces          28;
        startFace       497;
        matchTolerance  0.0001;
        transform       unknown;
        myProcNo        25;
        neighbProcNo    17;
    }
    procBoundary25to18
    {
        type            processor;
        inGroups        List<word> 1(processor);
        nFaces          5;
        startFace       525;
        matchTolerance  0.0001;
        transform       unknown;
        myProcNo        25;
        neighbProcNo    18;
    }
    procBoundary25to24
    {
        type            processor;
        inGroups        List<word> 1(processor);
        nFaces          4;
        startFace       530;
        matchTolerance  0.0001;
        transform       unknown;
        myProcNo        25;
        neighbProcNo    24;
    }
    procBoundary25to33
    {
        type            processor;
        inGroups        List<word> 1(processor);
        nFaces          4;
        startFace       534;
        matchTolerance  0.0001;
        transform       unknown;
        myProcNo        25;
        neighbProcNo    33;
    }
)

// ************************************************************************* //
