/*--------------------------------*- C++ -*----------------------------------*\
  =========                 |
  \\      /  F ield         | OpenFOAM: The Open Source CFD Toolbox
   \\    /   O peration     | Website:  https://openfoam.org
    \\  /    A nd           | Version:  7
     \\/     M anipulation  |
\*---------------------------------------------------------------------------*/
FoamFile
{
    version     2.0;
    format      ascii;
    class       polyBoundaryMesh;
    location    "constant/polyMesh";
    object      boundary;
}
// * * * * * * * * * * * * * * * * * * * * * * * * * * * * * * * * * * * * * //

9
(
    inlet
    {
        type            patch;
        nFaces          0;
        startFace       131;
    }
    outlet
    {
        type            patch;
        nFaces          0;
        startFace       131;
    }
    polygon
    {
        type            wall;
        inGroups        List<word> 1(wall);
        nFaces          0;
        startFace       131;
    }
    top
    {
        type            symmetryPlane;
        inGroups        List<word> 1(symmetryPlane);
        nFaces          75;
        startFace       131;
    }
    bottom
    {
        type            symmetryPlane;
        inGroups        List<word> 1(symmetryPlane);
        nFaces          75;
        startFace       206;
    }
    outside
    {
        type            patch;
        nFaces          13;
        startFace       281;
    }
    procBoundary13to9
    {
        type            processor;
        inGroups        List<word> 1(processor);
        nFaces          14;
        startFace       294;
        matchTolerance  0.0001;
        transform       unknown;
        myProcNo        13;
        neighbProcNo    9;
    }
    procBoundary13to12
    {
        type            processor;
        inGroups        List<word> 1(processor);
        nFaces          5;
        startFace       308;
        matchTolerance  0.0001;
        transform       unknown;
        myProcNo        13;
        neighbProcNo    12;
    }
    procBoundary13to14
    {
        type            processor;
        inGroups        List<word> 1(processor);
        nFaces          6;
        startFace       313;
        matchTolerance  0.0001;
        transform       unknown;
        myProcNo        13;
        neighbProcNo    14;
    }
)

// ************************************************************************* //
