/*--------------------------------*- C++ -*----------------------------------*\
  =========                 |
  \\      /  F ield         | OpenFOAM: The Open Source CFD Toolbox
   \\    /   O peration     | Website:  https://openfoam.org
    \\  /    A nd           | Version:  7
     \\/     M anipulation  |
\*---------------------------------------------------------------------------*/
FoamFile
{
    version     2.0;
    format      ascii;
    class       polyBoundaryMesh;
    location    "constant/polyMesh";
    object      boundary;
}
// * * * * * * * * * * * * * * * * * * * * * * * * * * * * * * * * * * * * * //

11
(
    inlet
    {
        type            patch;
        nFaces          0;
        startFace       206;
    }
    outlet
    {
        type            patch;
        nFaces          0;
        startFace       206;
    }
    polygon
    {
        type            wall;
        inGroups        List<word> 1(wall);
        nFaces          0;
        startFace       206;
    }
    top
    {
        type            symmetryPlane;
        inGroups        List<word> 1(symmetryPlane);
        nFaces          115;
        startFace       206;
    }
    bottom
    {
        type            symmetryPlane;
        inGroups        List<word> 1(symmetryPlane);
        nFaces          115;
        startFace       321;
    }
    outside
    {
        type            patch;
        nFaces          0;
        startFace       436;
    }
    procBoundary36to28
    {
        type            processor;
        inGroups        List<word> 1(processor);
        nFaces          17;
        startFace       436;
        matchTolerance  0.0001;
        transform       unknown;
        myProcNo        36;
        neighbProcNo    28;
    }
    procBoundary36to29
    {
        type            processor;
        inGroups        List<word> 1(processor);
        nFaces          2;
        startFace       453;
        matchTolerance  0.0001;
        transform       unknown;
        myProcNo        36;
        neighbProcNo    29;
    }
    procBoundary36to35
    {
        type            processor;
        inGroups        List<word> 1(processor);
        nFaces          7;
        startFace       455;
        matchTolerance  0.0001;
        transform       unknown;
        myProcNo        36;
        neighbProcNo    35;
    }
    procBoundary36to37
    {
        type            processor;
        inGroups        List<word> 1(processor);
        nFaces          5;
        startFace       462;
        matchTolerance  0.0001;
        transform       unknown;
        myProcNo        36;
        neighbProcNo    37;
    }
    procBoundary36to44
    {
        type            processor;
        inGroups        List<word> 1(processor);
        nFaces          17;
        startFace       467;
        matchTolerance  0.0001;
        transform       unknown;
        myProcNo        36;
        neighbProcNo    44;
    }
)

// ************************************************************************* //
