/*--------------------------------*- C++ -*----------------------------------*\
  =========                 |
  \\      /  F ield         | OpenFOAM: The Open Source CFD Toolbox
   \\    /   O peration     | Website:  https://openfoam.org
    \\  /    A nd           | Version:  7
     \\/     M anipulation  |
\*---------------------------------------------------------------------------*/
FoamFile
{
    version     2.0;
    format      ascii;
    class       polyBoundaryMesh;
    location    "constant/polyMesh";
    object      boundary;
}
// * * * * * * * * * * * * * * * * * * * * * * * * * * * * * * * * * * * * * //

10
(
    inlet
    {
        type            patch;
        nFaces          10;
        startFace       322;
    }
    outlet
    {
        type            patch;
        nFaces          0;
        startFace       332;
    }
    polygon
    {
        type            wall;
        inGroups        List<word> 1(wall);
        nFaces          0;
        startFace       332;
    }
    top
    {
        type            symmetryPlane;
        inGroups        List<word> 1(symmetryPlane);
        nFaces          175;
        startFace       332;
    }
    bottom
    {
        type            symmetryPlane;
        inGroups        List<word> 1(symmetryPlane);
        nFaces          175;
        startFace       507;
    }
    outside
    {
        type            patch;
        nFaces          17;
        startFace       682;
    }
    procBoundary56to41
    {
        type            processor;
        inGroups        List<word> 1(processor);
        nFaces          1;
        startFace       699;
        matchTolerance  0.0001;
        transform       unknown;
        myProcNo        56;
        neighbProcNo    41;
    }
    procBoundary56to48
    {
        type            processor;
        inGroups        List<word> 1(processor);
        nFaces          18;
        startFace       700;
        matchTolerance  0.0001;
        transform       unknown;
        myProcNo        56;
        neighbProcNo    48;
    }
    procBoundary56to49
    {
        type            processor;
        inGroups        List<word> 1(processor);
        nFaces          5;
        startFace       718;
        matchTolerance  0.0001;
        transform       unknown;
        myProcNo        56;
        neighbProcNo    49;
    }
    procBoundary56to57
    {
        type            processor;
        inGroups        List<word> 1(processor);
        nFaces          5;
        startFace       723;
        matchTolerance  0.0001;
        transform       unknown;
        myProcNo        56;
        neighbProcNo    57;
    }
)

// ************************************************************************* //
