/*--------------------------------*- C++ -*----------------------------------*\
  =========                 |
  \\      /  F ield         | OpenFOAM: The Open Source CFD Toolbox
   \\    /   O peration     | Website:  https://openfoam.org
    \\  /    A nd           | Version:  7
     \\/     M anipulation  |
\*---------------------------------------------------------------------------*/
FoamFile
{
    version     2.0;
    format      ascii;
    class       polyBoundaryMesh;
    location    "constant/polyMesh";
    object      boundary;
}
// * * * * * * * * * * * * * * * * * * * * * * * * * * * * * * * * * * * * * //

11
(
    inlet
    {
        type            patch;
        nFaces          0;
        startFace       364;
    }
    outlet
    {
        type            patch;
        nFaces          0;
        startFace       364;
    }
    polygon
    {
        type            wall;
        inGroups        List<word> 1(wall);
        nFaces          80;
        startFace       364;
    }
    top
    {
        type            symmetryPlane;
        inGroups        List<word> 1(symmetryPlane);
        nFaces          225;
        startFace       444;
    }
    bottom
    {
        type            symmetryPlane;
        inGroups        List<word> 1(symmetryPlane);
        nFaces          225;
        startFace       669;
    }
    outside
    {
        type            patch;
        nFaces          0;
        startFace       894;
    }
    procBoundary10to6
    {
        type            processor;
        inGroups        List<word> 1(processor);
        nFaces          1;
        startFace       894;
        matchTolerance  0.0001;
        transform       unknown;
        myProcNo        10;
        neighbProcNo    6;
    }
    procBoundary10to9
    {
        type            processor;
        inGroups        List<word> 1(processor);
        nFaces          4;
        startFace       895;
        matchTolerance  0.0001;
        transform       unknown;
        myProcNo        10;
        neighbProcNo    9;
    }
    procBoundary10to11
    {
        type            processor;
        inGroups        List<word> 1(processor);
        nFaces          26;
        startFace       899;
        matchTolerance  0.0001;
        transform       unknown;
        myProcNo        10;
        neighbProcNo    11;
    }
    procBoundary10to14
    {
        type            processor;
        inGroups        List<word> 1(processor);
        nFaces          42;
        startFace       925;
        matchTolerance  0.0001;
        transform       unknown;
        myProcNo        10;
        neighbProcNo    14;
    }
    procBoundary10to15
    {
        type            processor;
        inGroups        List<word> 1(processor);
        nFaces          19;
        startFace       967;
        matchTolerance  0.0001;
        transform       unknown;
        myProcNo        10;
        neighbProcNo    15;
    }
)

// ************************************************************************* //
