/*--------------------------------*- C++ -*----------------------------------*\
  =========                 |
  \\      /  F ield         | OpenFOAM: The Open Source CFD Toolbox
   \\    /   O peration     | Website:  https://openfoam.org
    \\  /    A nd           | Version:  7
     \\/     M anipulation  |
\*---------------------------------------------------------------------------*/
FoamFile
{
    version     2.0;
    format      ascii;
    class       polyBoundaryMesh;
    location    "constant/polyMesh";
    object      boundary;
}
// * * * * * * * * * * * * * * * * * * * * * * * * * * * * * * * * * * * * * //

12
(
    inlet
    {
        type            patch;
        nFaces          0;
        startFace       205;
    }
    outlet
    {
        type            patch;
        nFaces          0;
        startFace       205;
    }
    polygon
    {
        type            wall;
        inGroups        List<word> 1(wall);
        nFaces          0;
        startFace       205;
    }
    top
    {
        type            symmetryPlane;
        inGroups        List<word> 1(symmetryPlane);
        nFaces          115;
        startFace       205;
    }
    bottom
    {
        type            symmetryPlane;
        inGroups        List<word> 1(symmetryPlane);
        nFaces          115;
        startFace       320;
    }
    outside
    {
        type            patch;
        nFaces          0;
        startFace       435;
    }
    procBoundary18to10
    {
        type            processor;
        inGroups        List<word> 1(processor);
        nFaces          17;
        startFace       435;
        matchTolerance  0.0001;
        transform       unknown;
        myProcNo        18;
        neighbProcNo    10;
    }
    procBoundary18to11
    {
        type            processor;
        inGroups        List<word> 1(processor);
        nFaces          2;
        startFace       452;
        matchTolerance  0.0001;
        transform       unknown;
        myProcNo        18;
        neighbProcNo    11;
    }
    procBoundary18to17
    {
        type            processor;
        inGroups        List<word> 1(processor);
        nFaces          1;
        startFace       454;
        matchTolerance  0.0001;
        transform       unknown;
        myProcNo        18;
        neighbProcNo    17;
    }
    procBoundary18to19
    {
        type            processor;
        inGroups        List<word> 1(processor);
        nFaces          5;
        startFace       455;
        matchTolerance  0.0001;
        transform       unknown;
        myProcNo        18;
        neighbProcNo    19;
    }
    procBoundary18to25
    {
        type            processor;
        inGroups        List<word> 1(processor);
        nFaces          7;
        startFace       460;
        matchTolerance  0.0001;
        transform       unknown;
        myProcNo        18;
        neighbProcNo    25;
    }
    procBoundary18to26
    {
        type            processor;
        inGroups        List<word> 1(processor);
        nFaces          18;
        startFace       467;
        matchTolerance  0.0001;
        transform       unknown;
        myProcNo        18;
        neighbProcNo    26;
    }
)

// ************************************************************************* //
