/*--------------------------------*- C++ -*----------------------------------*\
  =========                 |
  \\      /  F ield         | OpenFOAM: The Open Source CFD Toolbox
   \\    /   O peration     | Website:  https://openfoam.org
    \\  /    A nd           | Version:  7
     \\/     M anipulation  |
\*---------------------------------------------------------------------------*/
FoamFile
{
    version     2.0;
    format      ascii;
    class       polyBoundaryMesh;
    location    "constant/polyMesh";
    object      boundary;
}
// * * * * * * * * * * * * * * * * * * * * * * * * * * * * * * * * * * * * * //

9
(
    inlet
    {
        type            patch;
        nFaces          0;
        startFace       322;
    }
    outlet
    {
        type            patch;
        nFaces          10;
        startFace       322;
    }
    polygon
    {
        type            wall;
        inGroups        List<word> 1(wall);
        nFaces          0;
        startFace       332;
    }
    top
    {
        type            symmetryPlane;
        inGroups        List<word> 1(symmetryPlane);
        nFaces          175;
        startFace       332;
    }
    bottom
    {
        type            symmetryPlane;
        inGroups        List<word> 1(symmetryPlane);
        nFaces          175;
        startFace       507;
    }
    outside
    {
        type            patch;
        nFaces          0;
        startFace       682;
    }
    procBoundary55to47
    {
        type            processor;
        inGroups        List<word> 1(processor);
        nFaces          18;
        startFace       682;
        matchTolerance  0.0001;
        transform       unknown;
        myProcNo        55;
        neighbProcNo    47;
    }
    procBoundary55to54
    {
        type            processor;
        inGroups        List<word> 1(processor);
        nFaces          10;
        startFace       700;
        matchTolerance  0.0001;
        transform       unknown;
        myProcNo        55;
        neighbProcNo    54;
    }
    procBoundary55to63
    {
        type            processor;
        inGroups        List<word> 1(processor);
        nFaces          18;
        startFace       710;
        matchTolerance  0.0001;
        transform       unknown;
        myProcNo        55;
        neighbProcNo    63;
    }
)

// ************************************************************************* //
