/*--------------------------------*- C++ -*----------------------------------*\
  =========                 |
  \\      /  F ield         | OpenFOAM: The Open Source CFD Toolbox
   \\    /   O peration     | Website:  https://openfoam.org
    \\  /    A nd           | Version:  7
     \\/     M anipulation  |
\*---------------------------------------------------------------------------*/
FoamFile
{
    version     2.0;
    format      ascii;
    class       polyBoundaryMesh;
    location    "constant/polyMesh";
    object      boundary;
}
// * * * * * * * * * * * * * * * * * * * * * * * * * * * * * * * * * * * * * //

10
(
    inlet
    {
        type            patch;
        nFaces          0;
        startFace       225;
    }
    outlet
    {
        type            patch;
        nFaces          0;
        startFace       225;
    }
    polygon
    {
        type            wall;
        inGroups        List<word> 1(wall);
        nFaces          0;
        startFace       225;
    }
    top
    {
        type            symmetryPlane;
        inGroups        List<word> 1(symmetryPlane);
        nFaces          125;
        startFace       225;
    }
    bottom
    {
        type            symmetryPlane;
        inGroups        List<word> 1(symmetryPlane);
        nFaces          125;
        startFace       350;
    }
    outside
    {
        type            patch;
        nFaces          17;
        startFace       475;
    }
    procBoundary2to1
    {
        type            processor;
        inGroups        List<word> 1(processor);
        nFaces          5;
        startFace       492;
        matchTolerance  0.0001;
        transform       unknown;
        myProcNo        2;
        neighbProcNo    1;
    }
    procBoundary2to3
    {
        type            processor;
        inGroups        List<word> 1(processor);
        nFaces          7;
        startFace       497;
        matchTolerance  0.0001;
        transform       unknown;
        myProcNo        2;
        neighbProcNo    3;
    }
    procBoundary2to9
    {
        type            processor;
        inGroups        List<word> 1(processor);
        nFaces          3;
        startFace       504;
        matchTolerance  0.0001;
        transform       unknown;
        myProcNo        2;
        neighbProcNo    9;
    }
    procBoundary2to10
    {
        type            processor;
        inGroups        List<word> 1(processor);
        nFaces          18;
        startFace       507;
        matchTolerance  0.0001;
        transform       unknown;
        myProcNo        2;
        neighbProcNo    10;
    }
)

// ************************************************************************* //
