/*--------------------------------*- C++ -*----------------------------------*\
  =========                 |
  \\      /  F ield         | OpenFOAM: The Open Source CFD Toolbox
   \\    /   O peration     | Website:  https://openfoam.org
    \\  /    A nd           | Version:  7
     \\/     M anipulation  |
\*---------------------------------------------------------------------------*/
FoamFile
{
    version     2.0;
    format      ascii;
    class       polyBoundaryMesh;
    location    "constant/polyMesh";
    object      boundary;
}
// * * * * * * * * * * * * * * * * * * * * * * * * * * * * * * * * * * * * * //

11
(
    inlet
    {
        type            patch;
        nFaces          0;
        startFace       122;
    }
    outlet
    {
        type            patch;
        nFaces          0;
        startFace       122;
    }
    polygon
    {
        type            wall;
        inGroups        List<word> 1(wall);
        nFaces          20;
        startFace       122;
    }
    top
    {
        type            symmetryPlane;
        inGroups        List<word> 1(symmetryPlane);
        nFaces          75;
        startFace       142;
    }
    bottom
    {
        type            symmetryPlane;
        inGroups        List<word> 1(symmetryPlane);
        nFaces          75;
        startFace       217;
    }
    outside
    {
        type            patch;
        nFaces          0;
        startFace       292;
    }
    procBoundary5to0
    {
        type            processor;
        inGroups        List<word> 1(processor);
        nFaces          5;
        startFace       292;
        matchTolerance  0.0001;
        transform       unknown;
        myProcNo        5;
        neighbProcNo    0;
    }
    procBoundary5to1
    {
        type            processor;
        inGroups        List<word> 1(processor);
        nFaces          14;
        startFace       297;
        matchTolerance  0.0001;
        transform       unknown;
        myProcNo        5;
        neighbProcNo    1;
    }
    procBoundary5to4
    {
        type            processor;
        inGroups        List<word> 1(processor);
        nFaces          11;
        startFace       311;
        matchTolerance  0.0001;
        transform       unknown;
        myProcNo        5;
        neighbProcNo    4;
    }
    procBoundary5to6
    {
        type            processor;
        inGroups        List<word> 1(processor);
        nFaces          4;
        startFace       322;
        matchTolerance  0.0001;
        transform       unknown;
        myProcNo        5;
        neighbProcNo    6;
    }
    procBoundary5to9
    {
        type            processor;
        inGroups        List<word> 1(processor);
        nFaces          2;
        startFace       326;
        matchTolerance  0.0001;
        transform       unknown;
        myProcNo        5;
        neighbProcNo    9;
    }
)

// ************************************************************************* //
