/*--------------------------------*- C++ -*----------------------------------*\
  =========                 |
  \\      /  F ield         | OpenFOAM: The Open Source CFD Toolbox
   \\    /   O peration     | Website:  https://openfoam.org
    \\  /    A nd           | Version:  7
     \\/     M anipulation  |
\*---------------------------------------------------------------------------*/
FoamFile
{
    version     2.0;
    format      ascii;
    class       polyBoundaryMesh;
    location    "constant/polyMesh";
    object      boundary;
}
// * * * * * * * * * * * * * * * * * * * * * * * * * * * * * * * * * * * * * //

12
(
    inlet
    {
        type            patch;
        nFaces          0;
        startFace       198;
    }
    outlet
    {
        type            patch;
        nFaces          0;
        startFace       198;
    }
    polygon
    {
        type            wall;
        inGroups        List<word> 1(wall);
        nFaces          0;
        startFace       198;
    }
    top
    {
        type            symmetryPlane;
        inGroups        List<word> 1(symmetryPlane);
        nFaces          115;
        startFace       198;
    }
    bottom
    {
        type            symmetryPlane;
        inGroups        List<word> 1(symmetryPlane);
        nFaces          115;
        startFace       313;
    }
    outside
    {
        type            patch;
        nFaces          0;
        startFace       428;
    }
    procBoundary17to8
    {
        type            processor;
        inGroups        List<word> 1(processor);
        nFaces          3;
        startFace       428;
        matchTolerance  0.0001;
        transform       unknown;
        myProcNo        17;
        neighbProcNo    8;
    }
    procBoundary17to9
    {
        type            processor;
        inGroups        List<word> 1(processor);
        nFaces          26;
        startFace       431;
        matchTolerance  0.0001;
        transform       unknown;
        myProcNo        17;
        neighbProcNo    9;
    }
    procBoundary17to10
    {
        type            processor;
        inGroups        List<word> 1(processor);
        nFaces          5;
        startFace       457;
        matchTolerance  0.0001;
        transform       unknown;
        myProcNo        17;
        neighbProcNo    10;
    }
    procBoundary17to16
    {
        type            processor;
        inGroups        List<word> 1(processor);
        nFaces          2;
        startFace       462;
        matchTolerance  0.0001;
        transform       unknown;
        myProcNo        17;
        neighbProcNo    16;
    }
    procBoundary17to18
    {
        type            processor;
        inGroups        List<word> 1(processor);
        nFaces          1;
        startFace       464;
        matchTolerance  0.0001;
        transform       unknown;
        myProcNo        17;
        neighbProcNo    18;
    }
    procBoundary17to25
    {
        type            processor;
        inGroups        List<word> 1(processor);
        nFaces          27;
        startFace       465;
        matchTolerance  0.0001;
        transform       unknown;
        myProcNo        17;
        neighbProcNo    25;
    }
)

// ************************************************************************* //
