/*--------------------------------*- C++ -*----------------------------------*\
  =========                 |
  \\      /  F ield         | OpenFOAM: The Open Source CFD Toolbox
   \\    /   O peration     | Website:  https://openfoam.org
    \\  /    A nd           | Version:  7
     \\/     M anipulation  |
\*---------------------------------------------------------------------------*/
FoamFile
{
    version     2.0;
    format      ascii;
    class       polyBoundaryMesh;
    location    "constant/polyMesh";
    object      boundary;
}
// * * * * * * * * * * * * * * * * * * * * * * * * * * * * * * * * * * * * * //

10
(
    inlet
    {
        type            patch;
        nFaces          0;
        startFace       206;
    }
    outlet
    {
        type            patch;
        nFaces          0;
        startFace       206;
    }
    polygon
    {
        type            wall;
        inGroups        List<word> 1(wall);
        nFaces          0;
        startFace       206;
    }
    top
    {
        type            symmetryPlane;
        inGroups        List<word> 1(symmetryPlane);
        nFaces          115;
        startFace       206;
    }
    bottom
    {
        type            symmetryPlane;
        inGroups        List<word> 1(symmetryPlane);
        nFaces          115;
        startFace       321;
    }
    outside
    {
        type            patch;
        nFaces          16;
        startFace       436;
    }
    procBoundary62to54
    {
        type            processor;
        inGroups        List<word> 1(processor);
        nFaces          17;
        startFace       452;
        matchTolerance  0.0001;
        transform       unknown;
        myProcNo        62;
        neighbProcNo    54;
    }
    procBoundary62to55
    {
        type            processor;
        inGroups        List<word> 1(processor);
        nFaces          1;
        startFace       469;
        matchTolerance  0.0001;
        transform       unknown;
        myProcNo        62;
        neighbProcNo    55;
    }
    procBoundary62to61
    {
        type            processor;
        inGroups        List<word> 1(processor);
        nFaces          7;
        startFace       470;
        matchTolerance  0.0001;
        transform       unknown;
        myProcNo        62;
        neighbProcNo    61;
    }
    procBoundary62to63
    {
        type            processor;
        inGroups        List<word> 1(processor);
        nFaces          7;
        startFace       477;
        matchTolerance  0.0001;
        transform       unknown;
        myProcNo        62;
        neighbProcNo    63;
    }
)

// ************************************************************************* //
