/*--------------------------------*- C++ -*----------------------------------*\
  =========                 |
  \\      /  F ield         | OpenFOAM: The Open Source CFD Toolbox
   \\    /   O peration     | Website:  https://openfoam.org
    \\  /    A nd           | Version:  7
     \\/     M anipulation  |
\*---------------------------------------------------------------------------*/
FoamFile
{
    version     2.0;
    format      ascii;
    class       polyBoundaryMesh;
    location    "constant/polyMesh";
    object      boundary;
}
// * * * * * * * * * * * * * * * * * * * * * * * * * * * * * * * * * * * * * //

11
(
    inlet
    {
        type            patch;
        nFaces          0;
        startFace       321;
    }
    outlet
    {
        type            patch;
        nFaces          0;
        startFace       321;
    }
    polygon
    {
        type            wall;
        inGroups        List<word> 1(wall);
        nFaces          0;
        startFace       321;
    }
    top
    {
        type            symmetryPlane;
        inGroups        List<word> 1(symmetryPlane);
        nFaces          175;
        startFace       321;
    }
    bottom
    {
        type            symmetryPlane;
        inGroups        List<word> 1(symmetryPlane);
        nFaces          175;
        startFace       496;
    }
    outside
    {
        type            patch;
        nFaces          0;
        startFace       671;
    }
    procBoundary12to4
    {
        type            processor;
        inGroups        List<word> 1(processor);
        nFaces          19;
        startFace       671;
        matchTolerance  0.0001;
        transform       unknown;
        myProcNo        12;
        neighbProcNo    4;
    }
    procBoundary12to5
    {
        type            processor;
        inGroups        List<word> 1(processor);
        nFaces          2;
        startFace       690;
        matchTolerance  0.0001;
        transform       unknown;
        myProcNo        12;
        neighbProcNo    5;
    }
    procBoundary12to11
    {
        type            processor;
        inGroups        List<word> 1(processor);
        nFaces          10;
        startFace       692;
        matchTolerance  0.0001;
        transform       unknown;
        myProcNo        12;
        neighbProcNo    11;
    }
    procBoundary12to13
    {
        type            processor;
        inGroups        List<word> 1(processor);
        nFaces          8;
        startFace       702;
        matchTolerance  0.0001;
        transform       unknown;
        myProcNo        12;
        neighbProcNo    13;
    }
    procBoundary12to20
    {
        type            processor;
        inGroups        List<word> 1(processor);
        nFaces          19;
        startFace       710;
        matchTolerance  0.0001;
        transform       unknown;
        myProcNo        12;
        neighbProcNo    20;
    }
)

// ************************************************************************* //
