/*--------------------------------*- C++ -*----------------------------------*\
  =========                 |
  \\      /  F ield         | OpenFOAM: The Open Source CFD Toolbox
   \\    /   O peration     | Website:  https://openfoam.org
    \\  /    A nd           | Version:  7
     \\/     M anipulation  |
\*---------------------------------------------------------------------------*/
FoamFile
{
    version     2.0;
    format      ascii;
    class       polyBoundaryMesh;
    location    "constant/polyMesh";
    object      boundary;
}
// * * * * * * * * * * * * * * * * * * * * * * * * * * * * * * * * * * * * * //

12
(
    inlet
    {
        type            patch;
        nFaces          0;
        startFace       225;
    }
    outlet
    {
        type            patch;
        nFaces          0;
        startFace       225;
    }
    polygon
    {
        type            wall;
        inGroups        List<word> 1(wall);
        nFaces          0;
        startFace       225;
    }
    top
    {
        type            symmetryPlane;
        inGroups        List<word> 1(symmetryPlane);
        nFaces          125;
        startFace       225;
    }
    bottom
    {
        type            symmetryPlane;
        inGroups        List<word> 1(symmetryPlane);
        nFaces          125;
        startFace       350;
    }
    outside
    {
        type            patch;
        nFaces          0;
        startFace       475;
    }
    procBoundary14to6
    {
        type            processor;
        inGroups        List<word> 1(processor);
        nFaces          17;
        startFace       475;
        matchTolerance  0.0001;
        transform       unknown;
        myProcNo        14;
        neighbProcNo    6;
    }
    procBoundary14to7
    {
        type            processor;
        inGroups        List<word> 1(processor);
        nFaces          1;
        startFace       492;
        matchTolerance  0.0001;
        transform       unknown;
        myProcNo        14;
        neighbProcNo    7;
    }
    procBoundary14to13
    {
        type            processor;
        inGroups        List<word> 1(processor);
        nFaces          6;
        startFace       493;
        matchTolerance  0.0001;
        transform       unknown;
        myProcNo        14;
        neighbProcNo    13;
    }
    procBoundary14to15
    {
        type            processor;
        inGroups        List<word> 1(processor);
        nFaces          7;
        startFace       499;
        matchTolerance  0.0001;
        transform       unknown;
        myProcNo        14;
        neighbProcNo    15;
    }
    procBoundary14to21
    {
        type            processor;
        inGroups        List<word> 1(processor);
        nFaces          2;
        startFace       506;
        matchTolerance  0.0001;
        transform       unknown;
        myProcNo        14;
        neighbProcNo    21;
    }
    procBoundary14to22
    {
        type            processor;
        inGroups        List<word> 1(processor);
        nFaces          17;
        startFace       508;
        matchTolerance  0.0001;
        transform       unknown;
        myProcNo        14;
        neighbProcNo    22;
    }
)

// ************************************************************************* //
