/*--------------------------------*- C++ -*----------------------------------*\
  =========                 |
  \\      /  F ield         | OpenFOAM: The Open Source CFD Toolbox
   \\    /   O peration     | Website:  https://openfoam.org
    \\  /    A nd           | Version:  7
     \\/     M anipulation  |
\*---------------------------------------------------------------------------*/
FoamFile
{
    version     2.0;
    format      ascii;
    class       polyBoundaryMesh;
    location    "constant/polyMesh";
    object      boundary;
}
// * * * * * * * * * * * * * * * * * * * * * * * * * * * * * * * * * * * * * //

11
(
    inlet
    {
        type            patch;
        nFaces          0;
        startFace       203;
    }
    outlet
    {
        type            patch;
        nFaces          0;
        startFace       203;
    }
    polygon
    {
        type            wall;
        inGroups        List<word> 1(wall);
        nFaces          40;
        startFace       203;
    }
    top
    {
        type            symmetryPlane;
        inGroups        List<word> 1(symmetryPlane);
        nFaces          125;
        startFace       243;
    }
    bottom
    {
        type            symmetryPlane;
        inGroups        List<word> 1(symmetryPlane);
        nFaces          125;
        startFace       368;
    }
    outside
    {
        type            patch;
        nFaces          0;
        startFace       493;
    }
    procBoundary5to0
    {
        type            processor;
        inGroups        List<word> 1(processor);
        nFaces          10;
        startFace       493;
        matchTolerance  0.0001;
        transform       unknown;
        myProcNo        5;
        neighbProcNo    0;
    }
    procBoundary5to1
    {
        type            processor;
        inGroups        List<word> 1(processor);
        nFaces          23;
        startFace       503;
        matchTolerance  0.0001;
        transform       unknown;
        myProcNo        5;
        neighbProcNo    1;
    }
    procBoundary5to4
    {
        type            processor;
        inGroups        List<word> 1(processor);
        nFaces          16;
        startFace       526;
        matchTolerance  0.0001;
        transform       unknown;
        myProcNo        5;
        neighbProcNo    4;
    }
    procBoundary5to6
    {
        type            processor;
        inGroups        List<word> 1(processor);
        nFaces          4;
        startFace       542;
        matchTolerance  0.0001;
        transform       unknown;
        myProcNo        5;
        neighbProcNo    6;
    }
    procBoundary5to9
    {
        type            processor;
        inGroups        List<word> 1(processor);
        nFaces          1;
        startFace       546;
        matchTolerance  0.0001;
        transform       unknown;
        myProcNo        5;
        neighbProcNo    9;
    }
)

// ************************************************************************* //
