/*--------------------------------*- C++ -*----------------------------------*\
  =========                 |
  \\      /  F ield         | OpenFOAM: The Open Source CFD Toolbox
   \\    /   O peration     | Website:  https://openfoam.org
    \\  /    A nd           | Version:  7
     \\/     M anipulation  |
\*---------------------------------------------------------------------------*/
FoamFile
{
    version     2.0;
    format      ascii;
    class       polyBoundaryMesh;
    location    "constant/polyMesh";
    object      boundary;
}
// * * * * * * * * * * * * * * * * * * * * * * * * * * * * * * * * * * * * * //

11
(
    inlet
    {
        type            patch;
        nFaces          0;
        startFace       223;
    }
    outlet
    {
        type            patch;
        nFaces          0;
        startFace       223;
    }
    polygon
    {
        type            wall;
        inGroups        List<word> 1(wall);
        nFaces          0;
        startFace       223;
    }
    top
    {
        type            symmetryPlane;
        inGroups        List<word> 1(symmetryPlane);
        nFaces          125;
        startFace       223;
    }
    bottom
    {
        type            symmetryPlane;
        inGroups        List<word> 1(symmetryPlane);
        nFaces          125;
        startFace       348;
    }
    outside
    {
        type            patch;
        nFaces          0;
        startFace       473;
    }
    procBoundary43to35
    {
        type            processor;
        inGroups        List<word> 1(processor);
        nFaces          18;
        startFace       473;
        matchTolerance  0.0001;
        transform       unknown;
        myProcNo        43;
        neighbProcNo    35;
    }
    procBoundary43to42
    {
        type            processor;
        inGroups        List<word> 1(processor);
        nFaces          8;
        startFace       491;
        matchTolerance  0.0001;
        transform       unknown;
        myProcNo        43;
        neighbProcNo    42;
    }
    procBoundary43to44
    {
        type            processor;
        inGroups        List<word> 1(processor);
        nFaces          9;
        startFace       499;
        matchTolerance  0.0001;
        transform       unknown;
        myProcNo        43;
        neighbProcNo    44;
    }
    procBoundary43to50
    {
        type            processor;
        inGroups        List<word> 1(processor);
        nFaces          1;
        startFace       508;
        matchTolerance  0.0001;
        transform       unknown;
        myProcNo        43;
        neighbProcNo    50;
    }
    procBoundary43to51
    {
        type            processor;
        inGroups        List<word> 1(processor);
        nFaces          18;
        startFace       509;
        matchTolerance  0.0001;
        transform       unknown;
        myProcNo        43;
        neighbProcNo    51;
    }
)

// ************************************************************************* //
