/*--------------------------------*- C++ -*----------------------------------*\
  =========                 |
  \\      /  F ield         | OpenFOAM: The Open Source CFD Toolbox
   \\    /   O peration     | Website:  https://openfoam.org
    \\  /    A nd           | Version:  7
     \\/     M anipulation  |
\*---------------------------------------------------------------------------*/
FoamFile
{
    version     2.0;
    format      ascii;
    class       polyBoundaryMesh;
    location    "constant/polyMesh";
    object      boundary;
}
// * * * * * * * * * * * * * * * * * * * * * * * * * * * * * * * * * * * * * //

10
(
    inlet
    {
        type            patch;
        nFaces          10;
        startFace       321;
    }
    outlet
    {
        type            patch;
        nFaces          0;
        startFace       331;
    }
    polygon
    {
        type            wall;
        inGroups        List<word> 1(wall);
        nFaces          0;
        startFace       331;
    }
    top
    {
        type            symmetryPlane;
        inGroups        List<word> 1(symmetryPlane);
        nFaces          175;
        startFace       331;
    }
    bottom
    {
        type            symmetryPlane;
        inGroups        List<word> 1(symmetryPlane);
        nFaces          175;
        startFace       506;
    }
    outside
    {
        type            patch;
        nFaces          0;
        startFace       681;
    }
    procBoundary48to33
    {
        type            processor;
        inGroups        List<word> 1(processor);
        nFaces          7;
        startFace       681;
        matchTolerance  0.0001;
        transform       unknown;
        myProcNo        48;
        neighbProcNo    33;
    }
    procBoundary48to40
    {
        type            processor;
        inGroups        List<word> 1(processor);
        nFaces          19;
        startFace       688;
        matchTolerance  0.0001;
        transform       unknown;
        myProcNo        48;
        neighbProcNo    40;
    }
    procBoundary48to41
    {
        type            processor;
        inGroups        List<word> 1(processor);
        nFaces          4;
        startFace       707;
        matchTolerance  0.0001;
        transform       unknown;
        myProcNo        48;
        neighbProcNo    41;
    }
    procBoundary48to56
    {
        type            processor;
        inGroups        List<word> 1(processor);
        nFaces          18;
        startFace       711;
        matchTolerance  0.0001;
        transform       unknown;
        myProcNo        48;
        neighbProcNo    56;
    }
)

// ************************************************************************* //
