/*--------------------------------*- C++ -*----------------------------------*\
  =========                 |
  \\      /  F ield         | OpenFOAM: The Open Source CFD Toolbox
   \\    /   O peration     | Website:  https://openfoam.org
    \\  /    A nd           | Version:  7
     \\/     M anipulation  |
\*---------------------------------------------------------------------------*/
FoamFile
{
    version     2.0;
    format      ascii;
    class       polyBoundaryMesh;
    location    "constant/polyMesh";
    object      boundary;
}
// * * * * * * * * * * * * * * * * * * * * * * * * * * * * * * * * * * * * * //

11
(
    inlet
    {
        type            patch;
        nFaces          0;
        startFace       205;
    }
    outlet
    {
        type            patch;
        nFaces          0;
        startFace       205;
    }
    polygon
    {
        type            wall;
        inGroups        List<word> 1(wall);
        nFaces          0;
        startFace       205;
    }
    top
    {
        type            symmetryPlane;
        inGroups        List<word> 1(symmetryPlane);
        nFaces          115;
        startFace       205;
    }
    bottom
    {
        type            symmetryPlane;
        inGroups        List<word> 1(symmetryPlane);
        nFaces          115;
        startFace       320;
    }
    outside
    {
        type            patch;
        nFaces          0;
        startFace       435;
    }
    procBoundary29to21
    {
        type            processor;
        inGroups        List<word> 1(processor);
        nFaces          18;
        startFace       435;
        matchTolerance  0.0001;
        transform       unknown;
        myProcNo        29;
        neighbProcNo    21;
    }
    procBoundary29to28
    {
        type            processor;
        inGroups        List<word> 1(processor);
        nFaces          5;
        startFace       453;
        matchTolerance  0.0001;
        transform       unknown;
        myProcNo        29;
        neighbProcNo    28;
    }
    procBoundary29to30
    {
        type            processor;
        inGroups        List<word> 1(processor);
        nFaces          7;
        startFace       458;
        matchTolerance  0.0001;
        transform       unknown;
        myProcNo        29;
        neighbProcNo    30;
    }
    procBoundary29to36
    {
        type            processor;
        inGroups        List<word> 1(processor);
        nFaces          2;
        startFace       465;
        matchTolerance  0.0001;
        transform       unknown;
        myProcNo        29;
        neighbProcNo    36;
    }
    procBoundary29to37
    {
        type            processor;
        inGroups        List<word> 1(processor);
        nFaces          18;
        startFace       467;
        matchTolerance  0.0001;
        transform       unknown;
        myProcNo        29;
        neighbProcNo    37;
    }
)

// ************************************************************************* //
