/*--------------------------------*- C++ -*----------------------------------*\
  =========                 |
  \\      /  F ield         | OpenFOAM: The Open Source CFD Toolbox
   \\    /   O peration     | Website:  https://openfoam.org
    \\  /    A nd           | Version:  7
     \\/     M anipulation  |
\*---------------------------------------------------------------------------*/
FoamFile
{
    version     2.0;
    format      ascii;
    class       polyBoundaryMesh;
    location    "constant/polyMesh";
    object      boundary;
}
// * * * * * * * * * * * * * * * * * * * * * * * * * * * * * * * * * * * * * //

10
(
    inlet
    {
        type            patch;
        nFaces          0;
        startFace       225;
    }
    outlet
    {
        type            patch;
        nFaces          8;
        startFace       225;
    }
    polygon
    {
        type            wall;
        inGroups        List<word> 1(wall);
        nFaces          0;
        startFace       233;
    }
    top
    {
        type            symmetryPlane;
        inGroups        List<word> 1(symmetryPlane);
        nFaces          125;
        startFace       233;
    }
    bottom
    {
        type            symmetryPlane;
        inGroups        List<word> 1(symmetryPlane);
        nFaces          125;
        startFace       358;
    }
    outside
    {
        type            patch;
        nFaces          0;
        startFace       483;
    }
    procBoundary55to47
    {
        type            processor;
        inGroups        List<word> 1(processor);
        nFaces          17;
        startFace       483;
        matchTolerance  0.0001;
        transform       unknown;
        myProcNo        55;
        neighbProcNo    47;
    }
    procBoundary55to54
    {
        type            processor;
        inGroups        List<word> 1(processor);
        nFaces          7;
        startFace       500;
        matchTolerance  0.0001;
        transform       unknown;
        myProcNo        55;
        neighbProcNo    54;
    }
    procBoundary55to62
    {
        type            processor;
        inGroups        List<word> 1(processor);
        nFaces          1;
        startFace       507;
        matchTolerance  0.0001;
        transform       unknown;
        myProcNo        55;
        neighbProcNo    62;
    }
    procBoundary55to63
    {
        type            processor;
        inGroups        List<word> 1(processor);
        nFaces          17;
        startFace       508;
        matchTolerance  0.0001;
        transform       unknown;
        myProcNo        55;
        neighbProcNo    63;
    }
)

// ************************************************************************* //
