/*--------------------------------*- C++ -*----------------------------------*\
  =========                 |
  \\      /  F ield         | OpenFOAM: The Open Source CFD Toolbox
   \\    /   O peration     | Website:  https://openfoam.org
    \\  /    A nd           | Version:  7
     \\/     M anipulation  |
\*---------------------------------------------------------------------------*/
FoamFile
{
    version     2.0;
    format      ascii;
    class       polyBoundaryMesh;
    location    "constant/polyMesh";
    object      boundary;
}
// * * * * * * * * * * * * * * * * * * * * * * * * * * * * * * * * * * * * * //

11
(
    inlet
    {
        type            patch;
        nFaces          0;
        startFace       206;
    }
    outlet
    {
        type            patch;
        nFaces          0;
        startFace       206;
    }
    polygon
    {
        type            wall;
        inGroups        List<word> 1(wall);
        nFaces          0;
        startFace       206;
    }
    top
    {
        type            symmetryPlane;
        inGroups        List<word> 1(symmetryPlane);
        nFaces          115;
        startFace       206;
    }
    bottom
    {
        type            symmetryPlane;
        inGroups        List<word> 1(symmetryPlane);
        nFaces          115;
        startFace       321;
    }
    outside
    {
        type            patch;
        nFaces          0;
        startFace       436;
    }
    procBoundary30to22
    {
        type            processor;
        inGroups        List<word> 1(processor);
        nFaces          17;
        startFace       436;
        matchTolerance  0.0001;
        transform       unknown;
        myProcNo        30;
        neighbProcNo    22;
    }
    procBoundary30to23
    {
        type            processor;
        inGroups        List<word> 1(processor);
        nFaces          1;
        startFace       453;
        matchTolerance  0.0001;
        transform       unknown;
        myProcNo        30;
        neighbProcNo    23;
    }
    procBoundary30to29
    {
        type            processor;
        inGroups        List<word> 1(processor);
        nFaces          7;
        startFace       454;
        matchTolerance  0.0001;
        transform       unknown;
        myProcNo        30;
        neighbProcNo    29;
    }
    procBoundary30to31
    {
        type            processor;
        inGroups        List<word> 1(processor);
        nFaces          7;
        startFace       461;
        matchTolerance  0.0001;
        transform       unknown;
        myProcNo        30;
        neighbProcNo    31;
    }
    procBoundary30to38
    {
        type            processor;
        inGroups        List<word> 1(processor);
        nFaces          16;
        startFace       468;
        matchTolerance  0.0001;
        transform       unknown;
        myProcNo        30;
        neighbProcNo    38;
    }
)

// ************************************************************************* //
