/*--------------------------------*- C++ -*----------------------------------*\
  =========                 |
  \\      /  F ield         | OpenFOAM: The Open Source CFD Toolbox
   \\    /   O peration     | Website:  https://openfoam.org
    \\  /    A nd           | Version:  7
     \\/     M anipulation  |
\*---------------------------------------------------------------------------*/
FoamFile
{
    version     2.0;
    format      ascii;
    class       polyBoundaryMesh;
    location    "constant/polyMesh";
    object      boundary;
}
// * * * * * * * * * * * * * * * * * * * * * * * * * * * * * * * * * * * * * //

11
(
    inlet
    {
        type            patch;
        nFaces          0;
        startFace       205;
    }
    outlet
    {
        type            patch;
        nFaces          0;
        startFace       205;
    }
    polygon
    {
        type            wall;
        inGroups        List<word> 1(wall);
        nFaces          0;
        startFace       205;
    }
    top
    {
        type            symmetryPlane;
        inGroups        List<word> 1(symmetryPlane);
        nFaces          115;
        startFace       205;
    }
    bottom
    {
        type            symmetryPlane;
        inGroups        List<word> 1(symmetryPlane);
        nFaces          115;
        startFace       320;
    }
    outside
    {
        type            patch;
        nFaces          0;
        startFace       435;
    }
    procBoundary20to12
    {
        type            processor;
        inGroups        List<word> 1(processor);
        nFaces          18;
        startFace       435;
        matchTolerance  0.0001;
        transform       unknown;
        myProcNo        20;
        neighbProcNo    12;
    }
    procBoundary20to13
    {
        type            processor;
        inGroups        List<word> 1(processor);
        nFaces          2;
        startFace       453;
        matchTolerance  0.0001;
        transform       unknown;
        myProcNo        20;
        neighbProcNo    13;
    }
    procBoundary20to19
    {
        type            processor;
        inGroups        List<word> 1(processor);
        nFaces          7;
        startFace       455;
        matchTolerance  0.0001;
        transform       unknown;
        myProcNo        20;
        neighbProcNo    19;
    }
    procBoundary20to21
    {
        type            processor;
        inGroups        List<word> 1(processor);
        nFaces          6;
        startFace       462;
        matchTolerance  0.0001;
        transform       unknown;
        myProcNo        20;
        neighbProcNo    21;
    }
    procBoundary20to28
    {
        type            processor;
        inGroups        List<word> 1(processor);
        nFaces          17;
        startFace       468;
        matchTolerance  0.0001;
        transform       unknown;
        myProcNo        20;
        neighbProcNo    28;
    }
)

// ************************************************************************* //
