/*--------------------------------*- C++ -*----------------------------------*\
  =========                 |
  \\      /  F ield         | OpenFOAM: The Open Source CFD Toolbox
   \\    /   O peration     | Website:  https://openfoam.org
    \\  /    A nd           | Version:  7
     \\/     M anipulation  |
\*---------------------------------------------------------------------------*/
FoamFile
{
    version     2.0;
    format      ascii;
    class       polyBoundaryMesh;
    location    "constant/polyMesh";
    object      boundary;
}
// * * * * * * * * * * * * * * * * * * * * * * * * * * * * * * * * * * * * * //

9
(
    inlet
    {
        type            patch;
        nFaces          9;
        startFace       322;
    }
    outlet
    {
        type            patch;
        nFaces          0;
        startFace       331;
    }
    polygon
    {
        type            wall;
        inGroups        List<word> 1(wall);
        nFaces          0;
        startFace       331;
    }
    top
    {
        type            symmetryPlane;
        inGroups        List<word> 1(symmetryPlane);
        nFaces          175;
        startFace       331;
    }
    bottom
    {
        type            symmetryPlane;
        inGroups        List<word> 1(symmetryPlane);
        nFaces          175;
        startFace       506;
    }
    outside
    {
        type            patch;
        nFaces          0;
        startFace       681;
    }
    procBoundary24to16
    {
        type            processor;
        inGroups        List<word> 1(processor);
        nFaces          19;
        startFace       681;
        matchTolerance  0.0001;
        transform       unknown;
        myProcNo        24;
        neighbProcNo    16;
    }
    procBoundary24to25
    {
        type            processor;
        inGroups        List<word> 1(processor);
        nFaces          10;
        startFace       700;
        matchTolerance  0.0001;
        transform       unknown;
        myProcNo        24;
        neighbProcNo    25;
    }
    procBoundary24to32
    {
        type            processor;
        inGroups        List<word> 1(processor);
        nFaces          18;
        startFace       710;
        matchTolerance  0.0001;
        transform       unknown;
        myProcNo        24;
        neighbProcNo    32;
    }
)

// ************************************************************************* //
