/*--------------------------------*- C++ -*----------------------------------*\
  =========                 |
  \\      /  F ield         | OpenFOAM: The Open Source CFD Toolbox
   \\    /   O peration     | Website:  https://openfoam.org
    \\  /    A nd           | Version:  7
     \\/     M anipulation  |
\*---------------------------------------------------------------------------*/
FoamFile
{
    version     2.0;
    format      ascii;
    class       polyBoundaryMesh;
    location    "constant/polyMesh";
    object      boundary;
}
// * * * * * * * * * * * * * * * * * * * * * * * * * * * * * * * * * * * * * //

12
(
    inlet
    {
        type            patch;
        nFaces          0;
        startFace       321;
    }
    outlet
    {
        type            patch;
        nFaces          0;
        startFace       321;
    }
    polygon
    {
        type            wall;
        inGroups        List<word> 1(wall);
        nFaces          0;
        startFace       321;
    }
    top
    {
        type            symmetryPlane;
        inGroups        List<word> 1(symmetryPlane);
        nFaces          175;
        startFace       321;
    }
    bottom
    {
        type            symmetryPlane;
        inGroups        List<word> 1(symmetryPlane);
        nFaces          175;
        startFace       496;
    }
    outside
    {
        type            patch;
        nFaces          0;
        startFace       671;
    }
    procBoundary52to44
    {
        type            processor;
        inGroups        List<word> 1(processor);
        nFaces          18;
        startFace       671;
        matchTolerance  0.0001;
        transform       unknown;
        myProcNo        52;
        neighbProcNo    44;
    }
    procBoundary52to45
    {
        type            processor;
        inGroups        List<word> 1(processor);
        nFaces          1;
        startFace       689;
        matchTolerance  0.0001;
        transform       unknown;
        myProcNo        52;
        neighbProcNo    45;
    }
    procBoundary52to51
    {
        type            processor;
        inGroups        List<word> 1(processor);
        nFaces          8;
        startFace       690;
        matchTolerance  0.0001;
        transform       unknown;
        myProcNo        52;
        neighbProcNo    51;
    }
    procBoundary52to53
    {
        type            processor;
        inGroups        List<word> 1(processor);
        nFaces          10;
        startFace       698;
        matchTolerance  0.0001;
        transform       unknown;
        myProcNo        52;
        neighbProcNo    53;
    }
    procBoundary52to59
    {
        type            processor;
        inGroups        List<word> 1(processor);
        nFaces          2;
        startFace       708;
        matchTolerance  0.0001;
        transform       unknown;
        myProcNo        52;
        neighbProcNo    59;
    }
    procBoundary52to60
    {
        type            processor;
        inGroups        List<word> 1(processor);
        nFaces          19;
        startFace       710;
        matchTolerance  0.0001;
        transform       unknown;
        myProcNo        52;
        neighbProcNo    60;
    }
)

// ************************************************************************* //
