/*--------------------------------*- C++ -*----------------------------------*\
  =========                 |
  \\      /  F ield         | OpenFOAM: The Open Source CFD Toolbox
   \\    /   O peration     | Website:  https://openfoam.org
    \\  /    A nd           | Version:  7
     \\/     M anipulation  |
\*---------------------------------------------------------------------------*/
FoamFile
{
    version     2.0;
    format      ascii;
    class       polyBoundaryMesh;
    location    "constant/polyMesh";
    object      boundary;
}
// * * * * * * * * * * * * * * * * * * * * * * * * * * * * * * * * * * * * * //

12
(
    inlet
    {
        type            patch;
        nFaces          0;
        startFace       321;
    }
    outlet
    {
        type            patch;
        nFaces          0;
        startFace       321;
    }
    polygon
    {
        type            wall;
        inGroups        List<word> 1(wall);
        nFaces          0;
        startFace       321;
    }
    top
    {
        type            symmetryPlane;
        inGroups        List<word> 1(symmetryPlane);
        nFaces          175;
        startFace       321;
    }
    bottom
    {
        type            symmetryPlane;
        inGroups        List<word> 1(symmetryPlane);
        nFaces          175;
        startFace       496;
    }
    outside
    {
        type            patch;
        nFaces          0;
        startFace       671;
    }
    procBoundary30to22
    {
        type            processor;
        inGroups        List<word> 1(processor);
        nFaces          18;
        startFace       671;
        matchTolerance  0.0001;
        transform       unknown;
        myProcNo        30;
        neighbProcNo    22;
    }
    procBoundary30to23
    {
        type            processor;
        inGroups        List<word> 1(processor);
        nFaces          2;
        startFace       689;
        matchTolerance  0.0001;
        transform       unknown;
        myProcNo        30;
        neighbProcNo    23;
    }
    procBoundary30to29
    {
        type            processor;
        inGroups        List<word> 1(processor);
        nFaces          10;
        startFace       691;
        matchTolerance  0.0001;
        transform       unknown;
        myProcNo        30;
        neighbProcNo    29;
    }
    procBoundary30to31
    {
        type            processor;
        inGroups        List<word> 1(processor);
        nFaces          9;
        startFace       701;
        matchTolerance  0.0001;
        transform       unknown;
        myProcNo        30;
        neighbProcNo    31;
    }
    procBoundary30to37
    {
        type            processor;
        inGroups        List<word> 1(processor);
        nFaces          1;
        startFace       710;
        matchTolerance  0.0001;
        transform       unknown;
        myProcNo        30;
        neighbProcNo    37;
    }
    procBoundary30to38
    {
        type            processor;
        inGroups        List<word> 1(processor);
        nFaces          18;
        startFace       711;
        matchTolerance  0.0001;
        transform       unknown;
        myProcNo        30;
        neighbProcNo    38;
    }
)

// ************************************************************************* //
