/*--------------------------------*- C++ -*----------------------------------*\
  =========                 |
  \\      /  F ield         | OpenFOAM: The Open Source CFD Toolbox
   \\    /   O peration     | Website:  https://openfoam.org
    \\  /    A nd           | Version:  7
     \\/     M anipulation  |
\*---------------------------------------------------------------------------*/
FoamFile
{
    version     2.0;
    format      ascii;
    class       polyBoundaryMesh;
    location    "constant/polyMesh";
    object      boundary;
}
// * * * * * * * * * * * * * * * * * * * * * * * * * * * * * * * * * * * * * //

11
(
    inlet
    {
        type            patch;
        nFaces          0;
        startFace       322;
    }
    outlet
    {
        type            patch;
        nFaces          0;
        startFace       322;
    }
    polygon
    {
        type            wall;
        inGroups        List<word> 1(wall);
        nFaces          0;
        startFace       322;
    }
    top
    {
        type            symmetryPlane;
        inGroups        List<word> 1(symmetryPlane);
        nFaces          175;
        startFace       322;
    }
    bottom
    {
        type            symmetryPlane;
        inGroups        List<word> 1(symmetryPlane);
        nFaces          175;
        startFace       497;
    }
    outside
    {
        type            patch;
        nFaces          0;
        startFace       672;
    }
    procBoundary53to45
    {
        type            processor;
        inGroups        List<word> 1(processor);
        nFaces          18;
        startFace       672;
        matchTolerance  0.0001;
        transform       unknown;
        myProcNo        53;
        neighbProcNo    45;
    }
    procBoundary53to46
    {
        type            processor;
        inGroups        List<word> 1(processor);
        nFaces          2;
        startFace       690;
        matchTolerance  0.0001;
        transform       unknown;
        myProcNo        53;
        neighbProcNo    46;
    }
    procBoundary53to52
    {
        type            processor;
        inGroups        List<word> 1(processor);
        nFaces          10;
        startFace       692;
        matchTolerance  0.0001;
        transform       unknown;
        myProcNo        53;
        neighbProcNo    52;
    }
    procBoundary53to54
    {
        type            processor;
        inGroups        List<word> 1(processor);
        nFaces          8;
        startFace       702;
        matchTolerance  0.0001;
        transform       unknown;
        myProcNo        53;
        neighbProcNo    54;
    }
    procBoundary53to61
    {
        type            processor;
        inGroups        List<word> 1(processor);
        nFaces          18;
        startFace       710;
        matchTolerance  0.0001;
        transform       unknown;
        myProcNo        53;
        neighbProcNo    61;
    }
)

// ************************************************************************* //
