/*--------------------------------*- C++ -*----------------------------------*\
  =========                 |
  \\      /  F ield         | OpenFOAM: The Open Source CFD Toolbox
   \\    /   O peration     | Website:  https://openfoam.org
    \\  /    A nd           | Version:  7
     \\/     M anipulation  |
\*---------------------------------------------------------------------------*/
FoamFile
{
    version     2.0;
    format      ascii;
    class       polyBoundaryMesh;
    location    "constant/polyMesh";
    object      boundary;
}
// * * * * * * * * * * * * * * * * * * * * * * * * * * * * * * * * * * * * * //

11
(
    inlet
    {
        type            patch;
        nFaces          0;
        startFace       310;
    }
    outlet
    {
        type            patch;
        nFaces          0;
        startFace       310;
    }
    polygon
    {
        type            wall;
        inGroups        List<word> 1(wall);
        nFaces          0;
        startFace       310;
    }
    top
    {
        type            symmetryPlane;
        inGroups        List<word> 1(symmetryPlane);
        nFaces          175;
        startFace       310;
    }
    bottom
    {
        type            symmetryPlane;
        inGroups        List<word> 1(symmetryPlane);
        nFaces          175;
        startFace       485;
    }
    outside
    {
        type            patch;
        nFaces          0;
        startFace       660;
    }
    procBoundary9to0
    {
        type            processor;
        inGroups        List<word> 1(processor);
        nFaces          5;
        startFace       660;
        matchTolerance  0.0001;
        transform       unknown;
        myProcNo        9;
        neighbProcNo    0;
    }
    procBoundary9to1
    {
        type            processor;
        inGroups        List<word> 1(processor);
        nFaces          35;
        startFace       665;
        matchTolerance  0.0001;
        transform       unknown;
        myProcNo        9;
        neighbProcNo    1;
    }
    procBoundary9to2
    {
        type            processor;
        inGroups        List<word> 1(processor);
        nFaces          3;
        startFace       700;
        matchTolerance  0.0001;
        transform       unknown;
        myProcNo        9;
        neighbProcNo    2;
    }
    procBoundary9to10
    {
        type            processor;
        inGroups        List<word> 1(processor);
        nFaces          3;
        startFace       703;
        matchTolerance  0.0001;
        transform       unknown;
        myProcNo        9;
        neighbProcNo    10;
    }
    procBoundary9to17
    {
        type            processor;
        inGroups        List<word> 1(processor);
        nFaces          34;
        startFace       706;
        matchTolerance  0.0001;
        transform       unknown;
        myProcNo        9;
        neighbProcNo    17;
    }
)

// ************************************************************************* //
