/*--------------------------------*- C++ -*----------------------------------*\
  =========                 |
  \\      /  F ield         | OpenFOAM: The Open Source CFD Toolbox
   \\    /   O peration     | Website:  https://openfoam.org
    \\  /    A nd           | Version:  7
     \\/     M anipulation  |
\*---------------------------------------------------------------------------*/
FoamFile
{
    version     2.0;
    format      ascii;
    class       polyBoundaryMesh;
    location    "constant/polyMesh";
    object      boundary;
}
// * * * * * * * * * * * * * * * * * * * * * * * * * * * * * * * * * * * * * //

9
(
    inlet
    {
        type            patch;
        nFaces          0;
        startFace       132;
    }
    outlet
    {
        type            patch;
        nFaces          11;
        startFace       132;
    }
    polygon
    {
        type            wall;
        inGroups        List<word> 1(wall);
        nFaces          0;
        startFace       143;
    }
    top
    {
        type            symmetryPlane;
        inGroups        List<word> 1(symmetryPlane);
        nFaces          75;
        startFace       143;
    }
    bottom
    {
        type            symmetryPlane;
        inGroups        List<word> 1(symmetryPlane);
        nFaces          75;
        startFace       218;
    }
    outside
    {
        type            patch;
        nFaces          7;
        startFace       293;
    }
    procBoundary15to10
    {
        type            processor;
        inGroups        List<word> 1(processor);
        nFaces          5;
        startFace       300;
        matchTolerance  0.0001;
        transform       unknown;
        myProcNo        15;
        neighbProcNo    10;
    }
    procBoundary15to11
    {
        type            processor;
        inGroups        List<word> 1(processor);
        nFaces          8;
        startFace       305;
        matchTolerance  0.0001;
        transform       unknown;
        myProcNo        15;
        neighbProcNo    11;
    }
    procBoundary15to14
    {
        type            processor;
        inGroups        List<word> 1(processor);
        nFaces          5;
        startFace       313;
        matchTolerance  0.0001;
        transform       unknown;
        myProcNo        15;
        neighbProcNo    14;
    }
)

// ************************************************************************* //
