/*--------------------------------*- C++ -*----------------------------------*\
  =========                 |
  \\      /  F ield         | OpenFOAM: The Open Source CFD Toolbox
   \\    /   O peration     | Website:  https://openfoam.org
    \\  /    A nd           | Version:  7
     \\/     M anipulation  |
\*---------------------------------------------------------------------------*/
FoamFile
{
    version     2.0;
    format      ascii;
    class       polyBoundaryMesh;
    location    "constant/polyMesh";
    object      boundary;
}
// * * * * * * * * * * * * * * * * * * * * * * * * * * * * * * * * * * * * * //

11
(
    inlet
    {
        type            patch;
        nFaces          0;
        startFace       316;
    }
    outlet
    {
        type            patch;
        nFaces          0;
        startFace       316;
    }
    polygon
    {
        type            wall;
        inGroups        List<word> 1(wall);
        nFaces          15;
        startFace       316;
    }
    top
    {
        type            symmetryPlane;
        inGroups        List<word> 1(symmetryPlane);
        nFaces          175;
        startFace       331;
    }
    bottom
    {
        type            symmetryPlane;
        inGroups        List<word> 1(symmetryPlane);
        nFaces          175;
        startFace       506;
    }
    outside
    {
        type            patch;
        nFaces          0;
        startFace       681;
    }
    procBoundary42to33
    {
        type            processor;
        inGroups        List<word> 1(processor);
        nFaces          4;
        startFace       681;
        matchTolerance  0.0001;
        transform       unknown;
        myProcNo        42;
        neighbProcNo    33;
    }
    procBoundary42to34
    {
        type            processor;
        inGroups        List<word> 1(processor);
        nFaces          13;
        startFace       685;
        matchTolerance  0.0001;
        transform       unknown;
        myProcNo        42;
        neighbProcNo    34;
    }
    procBoundary42to43
    {
        type            processor;
        inGroups        List<word> 1(processor);
        nFaces          7;
        startFace       698;
        matchTolerance  0.0001;
        transform       unknown;
        myProcNo        42;
        neighbProcNo    43;
    }
    procBoundary42to50
    {
        type            processor;
        inGroups        List<word> 1(processor);
        nFaces          24;
        startFace       705;
        matchTolerance  0.0001;
        transform       unknown;
        myProcNo        42;
        neighbProcNo    50;
    }
    procBoundary42to51
    {
        type            processor;
        inGroups        List<word> 1(processor);
        nFaces          5;
        startFace       729;
        matchTolerance  0.0001;
        transform       unknown;
        myProcNo        42;
        neighbProcNo    51;
    }
)

// ************************************************************************* //
