/*--------------------------------*- C++ -*----------------------------------*\
  =========                 |
  \\      /  F ield         | OpenFOAM: The Open Source CFD Toolbox
   \\    /   O peration     | Website:  https://openfoam.org
    \\  /    A nd           | Version:  7
     \\/     M anipulation  |
\*---------------------------------------------------------------------------*/
FoamFile
{
    version     2.0;
    format      ascii;
    class       polyBoundaryMesh;
    location    "constant/polyMesh";
    object      boundary;
}
// * * * * * * * * * * * * * * * * * * * * * * * * * * * * * * * * * * * * * //

10
(
    inlet
    {
        type            patch;
        nFaces          0;
        startFace       218;
    }
    outlet
    {
        type            patch;
        nFaces          0;
        startFace       218;
    }
    polygon
    {
        type            wall;
        inGroups        List<word> 1(wall);
        nFaces          0;
        startFace       218;
    }
    top
    {
        type            symmetryPlane;
        inGroups        List<word> 1(symmetryPlane);
        nFaces          125;
        startFace       218;
    }
    bottom
    {
        type            symmetryPlane;
        inGroups        List<word> 1(symmetryPlane);
        nFaces          125;
        startFace       343;
    }
    outside
    {
        type            patch;
        nFaces          0;
        startFace       468;
    }
    procBoundary17to8
    {
        type            processor;
        inGroups        List<word> 1(processor);
        nFaces          5;
        startFace       468;
        matchTolerance  0.0001;
        transform       unknown;
        myProcNo        17;
        neighbProcNo    8;
    }
    procBoundary17to9
    {
        type            processor;
        inGroups        List<word> 1(processor);
        nFaces          26;
        startFace       473;
        matchTolerance  0.0001;
        transform       unknown;
        myProcNo        17;
        neighbProcNo    9;
    }
    procBoundary17to10
    {
        type            processor;
        inGroups        List<word> 1(processor);
        nFaces          5;
        startFace       499;
        matchTolerance  0.0001;
        transform       unknown;
        myProcNo        17;
        neighbProcNo    10;
    }
    procBoundary17to25
    {
        type            processor;
        inGroups        List<word> 1(processor);
        nFaces          28;
        startFace       504;
        matchTolerance  0.0001;
        transform       unknown;
        myProcNo        17;
        neighbProcNo    25;
    }
)

// ************************************************************************* //
